electric-grid/physical/synthetic/synAustinTD/models/syn-austin-D_only-v03/P2U/base/opendss/Master.dss
Clear

New Circuit.Full_Network bus1=st_mat pu=1.0 basekV=230.0 R1=0.00001 X1=0.00001 R0=0.00001 X0=0.00001

Redirect p2uhs6_1247/Transformers.dss
Redirect p2uhs6_1247/p2uhs6_1247--p2udt6420/Transformers.dss
Redirect p2uhs6_1247/p2uhs6_1247--p2udt1124/Transformers.dss
Redirect p2uhs8_1247/Transformers.dss
Redirect p2uhs8_1247/p2uhs8_1247--p2udt5538/Transformers.dss
Redirect p2uhs8_1247/p2uhs8_1247--p2udt4184/Transformers.dss
Redirect p2uhs8_1247/p2uhs8_1247--p2udt6561/Transformers.dss
Redirect p2uhs8_1247/p2uhs8_1247--p2udt6424/Transformers.dss
Redirect p2uhs0_1247/Transformers.dss
Redirect p2uhs0_1247/p2uhs0_1247--p2udt8249/Transformers.dss
Redirect p2uhs0_1247/p2uhs0_1247--p2udt2514/Transformers.dss
Redirect p2uhs0_1247/p2uhs0_1247--p2udt4999/Transformers.dss
Redirect p2uhs0_1247/p2uhs0_1247--p2udt8078/Transformers.dss
Redirect p2uhs0_1247/p2uhs0_1247--p2udt8625/Transformers.dss
Redirect p2uhs0_1247/p2uhs0_1247--p2udt1587/Transformers.dss
Redirect p2uhs0_1247/p2uhs0_1247--p2udt8122/Transformers.dss
Redirect p2uhs11_1247/Transformers.dss
Redirect p2uhs11_1247/p2uhs11_1247--p2udt4732/Transformers.dss
Redirect p2uhs11_1247/p2uhs11_1247--p2udt5729/Transformers.dss
Redirect p2uhs11_1247/p2uhs11_1247--p2udt7967/Transformers.dss
Redirect p2uhs11_1247/p2uhs11_1247--p2udt3455/Transformers.dss
Redirect p2uhs12_1247/Transformers.dss
Redirect p2uhs12_1247/p2uhs12_1247--p2udt5222/Transformers.dss
Redirect p2uhs12_1247/p2uhs12_1247--p2udt5984/Transformers.dss
Redirect p2uhs7_1247/p2uhs7_1247--p2udt3821/Transformers.dss
Redirect p2uhs7_1247/Transformers.dss
Redirect p2uhs7_1247/p2uhs7_1247--p2udt2957/Transformers.dss
Redirect p2uhs2_1247/Transformers.dss
Redirect p2uhs2_1247/p2uhs2_1247--p2udt7925/Transformers.dss
Redirect p2uhs2_1247/p2uhs2_1247--p2udt8512/Transformers.dss
Redirect p2uhs2_1247/p2uhs2_1247--p2udt8082/Transformers.dss
Redirect p2uhs2_1247/p2uhs2_1247--p2udt106/Transformers.dss
Redirect p2uhs2_1247/p2uhs2_1247--p2udt8516/Transformers.dss
Redirect p2uhs2_1247/p2uhs2_1247--p2udt3567/Transformers.dss
Redirect p2uhs5_1247/p2uhs5_1247--p2udt2008/Transformers.dss
Redirect p2uhs5_1247/Transformers.dss
Redirect p2uhs5_1247/p2uhs5_1247--p2udt7035/Transformers.dss
Redirect p2uhs5_1247/p2uhs5_1247--p2udt7295/Transformers.dss
Redirect p2uhs9_1247/Transformers.dss
Redirect p2uhs9_1247/p2uhs9_1247--p2udt5858/Transformers.dss
Redirect p2uhs9_1247/p2uhs9_1247--p2udt3884/Transformers.dss
Redirect p2uhs9_1247/p2uhs9_1247--p2udt3330/Transformers.dss
Redirect p2uhs9_1247/p2uhs9_1247--p2udt8056/Transformers.dss
Redirect p2uhs3_1247/Transformers.dss
Redirect p2uhs3_1247/p2uhs3_1247--p2udt5611/Transformers.dss
Redirect p2uhs3_1247/p2uhs3_1247--p2udt8444/Transformers.dss
Redirect p2uhs1_1247/Transformers.dss
Redirect p2uhs1_1247/p2uhs1_1247--p2udt3475/Transformers.dss
Redirect p2uhs1_1247/p2uhs1_1247--p2udt4740/Transformers.dss
Redirect p2uhs1_1247/p2uhs1_1247--p2udt3615/Transformers.dss
Redirect p2uhs1_1247/p2uhs1_1247--p2udt3740/Transformers.dss
Redirect p2uhs1_1247/p2uhs1_1247--p2udt7154/Transformers.dss
Redirect p2uhs4_1247/Transformers.dss
Redirect p2uhs4_1247/p2uhs4_1247--p2udt433/Transformers.dss
Redirect p2uhs4_1247/p2uhs4_1247--p2udt3496/Transformers.dss
Redirect p2uhs4_1247/p2uhs4_1247--p2udt8180/Transformers.dss
Redirect p2uhs4_1247/p2uhs4_1247--p2udt7735/Transformers.dss
Redirect p2uhs4_1247/p2uhs4_1247--p2udt5265/Transformers.dss
Redirect p2uhs4_1247/p2uhs4_1247--p2udt7573/Transformers.dss
Redirect p2uhs10_1247/Transformers.dss
Redirect p2uhs10_1247/p2uhs10_1247--p2udt8615/Transformers.dss
Redirect p2uhs10_1247/p2uhs10_1247--p2udt3516/Transformers.dss
Redirect p2uhs10_1247/p2uhs10_1247--p2udt7514/Transformers.dss
Redirect p2uhs10_1247/p2uhs10_1247--p2udt8564/Transformers.dss
Redirect p2uhs10_1247/p2uhs10_1247--p2udt7118/Transformers.dss
Redirect p2uhs10_1247/p2uhs10_1247--p2udt7412/Transformers.dss
Redirect p2uhs13_1247/Transformers.dss
Redirect p2uhs13_1247/p2uhs13_1247--p2udt6883/Transformers.dss
Redirect subtransmission/Transformers.dss
Redirect p2uhs6_1247/Regulators.dss
Redirect p2uhs0_1247/Regulators.dss
Redirect p2uhs8_1247/Regulators.dss
Redirect p2uhs11_1247/Regulators.dss
Redirect p2uhs12_1247/Regulators.dss
Redirect p2uhs7_1247/Regulators.dss
Redirect p2uhs2_1247/Regulators.dss
Redirect p2uhs5_1247/Regulators.dss
Redirect p2uhs9_1247/Regulators.dss
Redirect p2uhs3_1247/Regulators.dss
Redirect p2uhs1_1247/Regulators.dss
Redirect p2uhs4_1247/Regulators.dss
Redirect p2uhs10_1247/Regulators.dss
Redirect p2uhs13_1247/Regulators.dss
Redirect p2uhs6_1247/p2uhs6_1247--p2udt6420/Loads.dss
Redirect p2uhs6_1247/p2uhs6_1247--p2udt1124/Loads.dss
Redirect p2uhs8_1247/p2uhs8_1247--p2udt6424/Loads.dss
Redirect p2uhs8_1247/p2uhs8_1247--p2udt5538/Loads.dss
Redirect p2uhs8_1247/p2uhs8_1247--p2udt4184/Loads.dss
Redirect p2uhs8_1247/p2uhs8_1247--p2udt6561/Loads.dss
Redirect p2uhs0_1247/p2uhs0_1247--p2udt8249/Loads.dss
Redirect p2uhs0_1247/p2uhs0_1247--p2udt2514/Loads.dss
Redirect p2uhs0_1247/p2uhs0_1247--p2udt4999/Loads.dss
Redirect p2uhs0_1247/p2uhs0_1247--p2udt8078/Loads.dss
Redirect p2uhs0_1247/p2uhs0_1247--p2udt8625/Loads.dss
Redirect p2uhs0_1247/p2uhs0_1247--p2udt1587/Loads.dss
Redirect p2uhs0_1247/p2uhs0_1247--p2udt8122/Loads.dss
Redirect p2uhs11_1247/p2uhs11_1247--p2udt3455/Loads.dss
Redirect p2uhs11_1247/p2uhs11_1247--p2udt7967/Loads.dss
Redirect p2uhs11_1247/p2uhs11_1247--p2udt4732/Loads.dss
Redirect p2uhs11_1247/p2uhs11_1247--p2udt5729/Loads.dss
Redirect p2uhs12_1247/p2uhs12_1247--p2udt5222/Loads.dss
Redirect p2uhs12_1247/p2uhs12_1247--p2udt5984/Loads.dss
Redirect p2uhs7_1247/p2uhs7_1247--p2udt3821/Loads.dss
Redirect p2uhs7_1247/p2uhs7_1247--p2udt2957/Loads.dss
Redirect p2uhs2_1247/p2uhs2_1247--p2udt7925/Loads.dss
Redirect p2uhs2_1247/p2uhs2_1247--p2udt8512/Loads.dss
Redirect p2uhs2_1247/p2uhs2_1247--p2udt8082/Loads.dss
Redirect p2uhs2_1247/p2uhs2_1247--p2udt106/Loads.dss
Redirect p2uhs2_1247/p2uhs2_1247--p2udt8516/Loads.dss
Redirect p2uhs2_1247/p2uhs2_1247--p2udt3567/Loads.dss
Redirect p2uhs5_1247/p2uhs5_1247--p2udt2008/Loads.dss
Redirect p2uhs5_1247/p2uhs5_1247--p2udt7035/Loads.dss
Redirect p2uhs5_1247/p2uhs5_1247--p2udt7295/Loads.dss
Redirect p2uhs9_1247/p2uhs9_1247--p2udt8056/Loads.dss
Redirect p2uhs9_1247/p2uhs9_1247--p2udt3884/Loads.dss
Redirect p2uhs9_1247/p2uhs9_1247--p2udt5858/Loads.dss
Redirect p2uhs9_1247/p2uhs9_1247--p2udt3330/Loads.dss
Redirect p2uhs3_1247/p2uhs3_1247--p2udt5611/Loads.dss
Redirect p2uhs3_1247/p2uhs3_1247--p2udt8444/Loads.dss
Redirect p2uhs1_1247/p2uhs1_1247--p2udt3475/Loads.dss
Redirect p2uhs1_1247/p2uhs1_1247--p2udt4740/Loads.dss
Redirect p2uhs1_1247/p2uhs1_1247--p2udt3615/Loads.dss
Redirect p2uhs1_1247/p2uhs1_1247--p2udt3740/Loads.dss
Redirect p2uhs1_1247/p2uhs1_1247--p2udt7154/Loads.dss
Redirect p2uhs4_1247/p2uhs4_1247--p2udt433/Loads.dss
Redirect p2uhs4_1247/p2uhs4_1247--p2udt3496/Loads.dss
Redirect p2uhs4_1247/p2uhs4_1247--p2udt8180/Loads.dss
Redirect p2uhs4_1247/p2uhs4_1247--p2udt7735/Loads.dss
Redirect p2uhs4_1247/p2uhs4_1247--p2udt5265/Loads.dss
Redirect p2uhs4_1247/p2uhs4_1247--p2udt7573/Loads.dss
Redirect p2uhs10_1247/p2uhs10_1247--p2udt8615/Loads.dss
Redirect p2uhs10_1247/p2uhs10_1247--p2udt3516/Loads.dss
Redirect p2uhs10_1247/p2uhs10_1247--p2udt7514/Loads.dss
Redirect p2uhs10_1247/p2uhs10_1247--p2udt8564/Loads.dss
Redirect p2uhs10_1247/p2uhs10_1247--p2udt7118/Loads.dss
Redirect p2uhs10_1247/p2uhs10_1247--p2udt7412/Loads.dss
Redirect p2uhs13_1247/p2uhs13_1247--p2udt6883/Loads.dss
Redirect p2uhs6_1247/LineCodes.dss
Redirect p2uhs6_1247/p2uhs6_1247--p2udt6420/LineCodes.dss
Redirect p2uhs6_1247/p2uhs6_1247--p2udt1124/LineCodes.dss
Redirect p2uhs8_1247/LineCodes.dss
Redirect p2uhs8_1247/p2uhs8_1247--p2udt5538/LineCodes.dss
Redirect p2uhs8_1247/p2uhs8_1247--p2udt4184/LineCodes.dss
Redirect p2uhs8_1247/p2uhs8_1247--p2udt6561/LineCodes.dss
Redirect p2uhs8_1247/p2uhs8_1247--p2udt6424/LineCodes.dss
Redirect p2uhs0_1247/LineCodes.dss
Redirect p2uhs0_1247/p2uhs0_1247--p2udt8249/LineCodes.dss
Redirect p2uhs0_1247/p2uhs0_1247--p2udt2514/LineCodes.dss
Redirect p2uhs0_1247/p2uhs0_1247--p2udt4999/LineCodes.dss
Redirect p2uhs0_1247/p2uhs0_1247--p2udt8078/LineCodes.dss
Redirect p2uhs0_1247/p2uhs0_1247--p2udt8625/LineCodes.dss
Redirect p2uhs0_1247/p2uhs0_1247--p2udt1587/LineCodes.dss
Redirect p2uhs0_1247/p2uhs0_1247--p2udt8122/LineCodes.dss
Redirect p2uhs11_1247/LineCodes.dss
Redirect p2uhs11_1247/p2uhs11_1247--p2udt4732/LineCodes.dss
Redirect p2uhs11_1247/p2uhs11_1247--p2udt5729/LineCodes.dss
Redirect p2uhs11_1247/p2uhs11_1247--p2udt7967/LineCodes.dss
Redirect p2uhs11_1247/p2uhs11_1247--p2udt3455/LineCodes.dss
Redirect p2uhs12_1247/LineCodes.dss
Redirect p2uhs12_1247/p2uhs12_1247--p2udt5222/LineCodes.dss
Redirect p2uhs12_1247/p2uhs12_1247--p2udt5984/LineCodes.dss
Redirect p2uhs7_1247/p2uhs7_1247--p2udt3821/LineCodes.dss
Redirect p2uhs7_1247/LineCodes.dss
Redirect p2uhs7_1247/p2uhs7_1247--p2udt2957/LineCodes.dss
Redirect p2uhs2_1247/LineCodes.dss
Redirect p2uhs2_1247/p2uhs2_1247--p2udt7925/LineCodes.dss
Redirect p2uhs2_1247/p2uhs2_1247--p2udt8512/LineCodes.dss
Redirect p2uhs2_1247/p2uhs2_1247--p2udt8082/LineCodes.dss
Redirect p2uhs2_1247/p2uhs2_1247--p2udt106/LineCodes.dss
Redirect p2uhs2_1247/p2uhs2_1247--p2udt8516/LineCodes.dss
Redirect p2uhs2_1247/p2uhs2_1247--p2udt3567/LineCodes.dss
Redirect p2uhs5_1247/p2uhs5_1247--p2udt2008/LineCodes.dss
Redirect p2uhs5_1247/LineCodes.dss
Redirect p2uhs5_1247/p2uhs5_1247--p2udt7035/LineCodes.dss
Redirect p2uhs5_1247/p2uhs5_1247--p2udt7295/LineCodes.dss
Redirect p2uhs9_1247/LineCodes.dss
Redirect p2uhs9_1247/p2uhs9_1247--p2udt5858/LineCodes.dss
Redirect p2uhs9_1247/p2uhs9_1247--p2udt3884/LineCodes.dss
Redirect p2uhs9_1247/p2uhs9_1247--p2udt3330/LineCodes.dss
Redirect p2uhs9_1247/p2uhs9_1247--p2udt8056/LineCodes.dss
Redirect p2uhs3_1247/LineCodes.dss
Redirect p2uhs3_1247/p2uhs3_1247--p2udt5611/LineCodes.dss
Redirect p2uhs3_1247/p2uhs3_1247--p2udt8444/LineCodes.dss
Redirect p2uhs1_1247/LineCodes.dss
Redirect p2uhs1_1247/p2uhs1_1247--p2udt3475/LineCodes.dss
Redirect p2uhs1_1247/p2uhs1_1247--p2udt4740/LineCodes.dss
Redirect p2uhs1_1247/p2uhs1_1247--p2udt3615/LineCodes.dss
Redirect p2uhs1_1247/p2uhs1_1247--p2udt3740/LineCodes.dss
Redirect p2uhs1_1247/p2uhs1_1247--p2udt7154/LineCodes.dss
Redirect p2uhs4_1247/LineCodes.dss
Redirect p2uhs4_1247/p2uhs4_1247--p2udt433/LineCodes.dss
Redirect p2uhs4_1247/p2uhs4_1247--p2udt3496/LineCodes.dss
Redirect p2uhs4_1247/p2uhs4_1247--p2udt8180/LineCodes.dss
Redirect p2uhs4_1247/p2uhs4_1247--p2udt7735/LineCodes.dss
Redirect p2uhs4_1247/p2uhs4_1247--p2udt5265/LineCodes.dss
Redirect p2uhs4_1247/p2uhs4_1247--p2udt7573/LineCodes.dss
Redirect p2uhs10_1247/LineCodes.dss
Redirect p2uhs10_1247/p2uhs10_1247--p2udt8615/LineCodes.dss
Redirect p2uhs10_1247/p2uhs10_1247--p2udt3516/LineCodes.dss
Redirect p2uhs10_1247/p2uhs10_1247--p2udt7514/LineCodes.dss
Redirect p2uhs10_1247/p2uhs10_1247--p2udt8564/LineCodes.dss
Redirect p2uhs10_1247/p2uhs10_1247--p2udt7118/LineCodes.dss
Redirect p2uhs10_1247/p2uhs10_1247--p2udt7412/LineCodes.dss
Redirect p2uhs13_1247/LineCodes.dss
Redirect p2uhs13_1247/p2uhs13_1247--p2udt6883/LineCodes.dss
Redirect subtransmission/LineCodes.dss
Redirect p2uhs6_1247/Lines.dss
Redirect p2uhs6_1247/p2uhs6_1247--p2udt6420/Lines.dss
Redirect p2uhs6_1247/p2uhs6_1247--p2udt1124/Lines.dss
Redirect p2uhs8_1247/Lines.dss
Redirect p2uhs8_1247/p2uhs8_1247--p2udt5538/Lines.dss
Redirect p2uhs8_1247/p2uhs8_1247--p2udt4184/Lines.dss
Redirect p2uhs8_1247/p2uhs8_1247--p2udt6561/Lines.dss
Redirect p2uhs8_1247/p2uhs8_1247--p2udt6424/Lines.dss
Redirect p2uhs0_1247/Lines.dss
Redirect p2uhs0_1247/p2uhs0_1247--p2udt8249/Lines.dss
Redirect p2uhs0_1247/p2uhs0_1247--p2udt2514/Lines.dss
Redirect p2uhs0_1247/p2uhs0_1247--p2udt4999/Lines.dss
Redirect p2uhs0_1247/p2uhs0_1247--p2udt8078/Lines.dss
Redirect p2uhs0_1247/p2uhs0_1247--p2udt8625/Lines.dss
Redirect p2uhs0_1247/p2uhs0_1247--p2udt1587/Lines.dss
Redirect p2uhs0_1247/p2uhs0_1247--p2udt8122/Lines.dss
Redirect p2uhs11_1247/Lines.dss
Redirect p2uhs11_1247/p2uhs11_1247--p2udt4732/Lines.dss
Redirect p2uhs11_1247/p2uhs11_1247--p2udt5729/Lines.dss
Redirect p2uhs11_1247/p2uhs11_1247--p2udt7967/Lines.dss
Redirect p2uhs11_1247/p2uhs11_1247--p2udt3455/Lines.dss
Redirect p2uhs12_1247/Lines.dss
Redirect p2uhs12_1247/p2uhs12_1247--p2udt5222/Lines.dss
Redirect p2uhs12_1247/p2uhs12_1247--p2udt5984/Lines.dss
Redirect p2uhs7_1247/p2uhs7_1247--p2udt3821/Lines.dss
Redirect p2uhs7_1247/Lines.dss
Redirect p2uhs7_1247/p2uhs7_1247--p2udt2957/Lines.dss
Redirect p2uhs2_1247/Lines.dss
Redirect p2uhs2_1247/p2uhs2_1247--p2udt7925/Lines.dss
Redirect p2uhs2_1247/p2uhs2_1247--p2udt8512/Lines.dss
Redirect p2uhs2_1247/p2uhs2_1247--p2udt8082/Lines.dss
Redirect p2uhs2_1247/p2uhs2_1247--p2udt106/Lines.dss
Redirect p2uhs2_1247/p2uhs2_1247--p2udt8516/Lines.dss
Redirect p2uhs2_1247/p2uhs2_1247--p2udt3567/Lines.dss
Redirect p2uhs5_1247/p2uhs5_1247--p2udt2008/Lines.dss
Redirect p2uhs5_1247/Lines.dss
Redirect p2uhs5_1247/p2uhs5_1247--p2udt7035/Lines.dss
Redirect p2uhs5_1247/p2uhs5_1247--p2udt7295/Lines.dss
Redirect p2uhs9_1247/Lines.dss
Redirect p2uhs9_1247/p2uhs9_1247--p2udt5858/Lines.dss
Redirect p2uhs9_1247/p2uhs9_1247--p2udt3884/Lines.dss
Redirect p2uhs9_1247/p2uhs9_1247--p2udt3330/Lines.dss
Redirect p2uhs9_1247/p2uhs9_1247--p2udt8056/Lines.dss
Redirect p2uhs3_1247/Lines.dss
Redirect p2uhs3_1247/p2uhs3_1247--p2udt5611/Lines.dss
Redirect p2uhs3_1247/p2uhs3_1247--p2udt8444/Lines.dss
Redirect p2uhs1_1247/Lines.dss
Redirect p2uhs1_1247/p2uhs1_1247--p2udt3475/Lines.dss
Redirect p2uhs1_1247/p2uhs1_1247--p2udt4740/Lines.dss
Redirect p2uhs1_1247/p2uhs1_1247--p2udt3615/Lines.dss
Redirect p2uhs1_1247/p2uhs1_1247--p2udt3740/Lines.dss
Redirect p2uhs1_1247/p2uhs1_1247--p2udt7154/Lines.dss
Redirect p2uhs4_1247/Lines.dss
Redirect p2uhs4_1247/p2uhs4_1247--p2udt433/Lines.dss
Redirect p2uhs4_1247/p2uhs4_1247--p2udt3496/Lines.dss
Redirect p2uhs4_1247/p2uhs4_1247--p2udt8180/Lines.dss
Redirect p2uhs4_1247/p2uhs4_1247--p2udt7735/Lines.dss
Redirect p2uhs4_1247/p2uhs4_1247--p2udt5265/Lines.dss
Redirect p2uhs4_1247/p2uhs4_1247--p2udt7573/Lines.dss
Redirect p2uhs10_1247/Lines.dss
Redirect p2uhs10_1247/p2uhs10_1247--p2udt8615/Lines.dss
Redirect p2uhs10_1247/p2uhs10_1247--p2udt3516/Lines.dss
Redirect p2uhs10_1247/p2uhs10_1247--p2udt7514/Lines.dss
Redirect p2uhs10_1247/p2uhs10_1247--p2udt8564/Lines.dss
Redirect p2uhs10_1247/p2uhs10_1247--p2udt7118/Lines.dss
Redirect p2uhs10_1247/p2uhs10_1247--p2udt7412/Lines.dss
Redirect p2uhs13_1247/Lines.dss
Redirect p2uhs13_1247/p2uhs13_1247--p2udt6883/Lines.dss
Redirect subtransmission/Lines.dss
Redirect p2uhs0_1247/p2uhs0_1247--p2udt8249/Capacitors.dss
Redirect p2uhs0_1247/p2uhs0_1247--p2udt2514/Capacitors.dss
Redirect p2uhs0_1247/p2uhs0_1247--p2udt8078/Capacitors.dss
Redirect p2uhs0_1247/p2uhs0_1247--p2udt1587/Capacitors.dss
Redirect p2uhs0_1247/p2uhs0_1247--p2udt8122/Capacitors.dss
Redirect p2uhs1_1247/p2uhs1_1247--p2udt4740/Capacitors.dss
Redirect p2uhs1_1247/p2uhs1_1247--p2udt3615/Capacitors.dss
Redirect p2uhs1_1247/p2uhs1_1247--p2udt7154/Capacitors.dss
Redirect p2uhs1_1247/p2uhs1_1247--p2udt3475/Capacitors.dss
Redirect p2uhs2_1247/p2uhs2_1247--p2udt7925/Capacitors.dss
Redirect p2uhs2_1247/p2uhs2_1247--p2udt8512/Capacitors.dss
Redirect p2uhs2_1247/p2uhs2_1247--p2udt8082/Capacitors.dss
Redirect p2uhs2_1247/p2uhs2_1247--p2udt106/Capacitors.dss
Redirect p2uhs2_1247/p2uhs2_1247--p2udt8516/Capacitors.dss
Redirect p2uhs2_1247/p2uhs2_1247--p2udt3567/Capacitors.dss
Redirect p2uhs3_1247/p2uhs3_1247--p2udt5611/Capacitors.dss
Redirect p2uhs3_1247/p2uhs3_1247--p2udt8444/Capacitors.dss
Redirect p2uhs4_1247/p2uhs4_1247--p2udt7735/Capacitors.dss
Redirect p2uhs4_1247/p2uhs4_1247--p2udt433/Capacitors.dss
Redirect p2uhs4_1247/p2uhs4_1247--p2udt3496/Capacitors.dss
Redirect p2uhs4_1247/p2uhs4_1247--p2udt7573/Capacitors.dss
Redirect p2uhs5_1247/p2uhs5_1247--p2udt2008/Capacitors.dss
Redirect p2uhs5_1247/p2uhs5_1247--p2udt7035/Capacitors.dss
Redirect p2uhs6_1247/p2uhs6_1247--p2udt1124/Capacitors.dss
Redirect p2uhs6_1247/p2uhs6_1247--p2udt6420/Capacitors.dss
Redirect p2uhs7_1247/p2uhs7_1247--p2udt3821/Capacitors.dss
Redirect p2uhs7_1247/p2uhs7_1247--p2udt2957/Capacitors.dss
Redirect p2uhs8_1247/p2uhs8_1247--p2udt6424/Capacitors.dss
Redirect p2uhs8_1247/p2uhs8_1247--p2udt4184/Capacitors.dss
Redirect p2uhs9_1247/p2uhs9_1247--p2udt8056/Capacitors.dss
Redirect p2uhs9_1247/p2uhs9_1247--p2udt5858/Capacitors.dss
Redirect p2uhs9_1247/p2uhs9_1247--p2udt3884/Capacitors.dss
Redirect p2uhs10_1247/p2uhs10_1247--p2udt7514/Capacitors.dss
Redirect p2uhs10_1247/p2uhs10_1247--p2udt7412/Capacitors.dss
Redirect p2uhs10_1247/p2uhs10_1247--p2udt8615/Capacitors.dss
Redirect p2uhs10_1247/p2uhs10_1247--p2udt8564/Capacitors.dss
Redirect p2uhs11_1247/p2uhs11_1247--p2udt3455/Capacitors.dss
Redirect p2uhs11_1247/p2uhs11_1247--p2udt7967/Capacitors.dss
Redirect p2uhs11_1247/p2uhs11_1247--p2udt4732/Capacitors.dss
Redirect p2uhs11_1247/p2uhs11_1247--p2udt5729/Capacitors.dss
Redirect p2uhs12_1247/p2uhs12_1247--p2udt5222/Capacitors.dss
Redirect p2uhs12_1247/p2uhs12_1247--p2udt5984/Capacitors.dss
Redirect p2uhs13_1247/p2uhs13_1247--p2udt6883/Capacitors.dss

Set Voltagebases=[0.2080002494301389, 0.48, 7.199560000000001, 12.47, 69.0, 230.0]

Calcvoltagebases

Buscoords Buscoords.dss

Solve